LAMMPS (29 Oct 2020)
units		    real
atom_style	    full

read_data	    water_eq.data
Reading data file ...
  orthogonal box = (0.0000000 0.0000000 0.0000000) to (12.464486 12.464486 12.443718)
  reading atoms ...
  192 atoms
  reading velocities ...
  192 velocities
  scanning bonds ...
  scanning angles ...
  reading bonds ...
  128 bonds
  reading angles ...
  64 angles
Finding 1-2 1-3 1-4 neighbors ...
     2 = max # of 1-2 neighbors
     1 = max # of 1-3 neighbors
     1 = max # of 1-4 neighbors
     2 = max # of special neighbors

pair_style	    lj/cut/coul/long 9.8 9.8
kspace_style	pppm 1.0e-4

pair_coeff  	1 1 0.15535 3.166
pair_coeff  	* 2 0.0000 0.0000

bond_style	    harmonic
angle_style	    harmonic
dihedral_style	none
improper_style	none

bond_coeff	    1 1000.00 1.000
angle_coeff	    1 100.0 109.47

special_bonds   lj/coul 0.0 0.0 0.5
Finding 1-2 1-3 1-4 neighbors ...
     2 = max # of 1-2 neighbors
     1 = max # of 1-3 neighbors
     1 = max # of 1-4 neighbors
     2 = max # of special neighbors
neighbor        2.0 bin
neigh_modify	every 1 delay 10 check yes
fix		        2 all nvt temp 300.0 300.0 1000 tchain 1
velocity	    all create 300 432567 dist uniform
dump            1 all atom 100 water_spce.lammpstrj
dump_modify     1 sort id
thermo_style    custom step temp epair emol etotal press vol density
thermo          100
run             5000
PPPM initialization ...
  G vector (1/distance) = 0.28581223
  grid = 8 8 8
  stencil order = 5
  estimated absolute RMS force accuracy = 0.013285973
  estimated relative force accuracy = 4.0010312e-05
  3d grid and FFT values/proc = 3375 512
  update every 1 steps, delay 10 steps, check yes
Step Temp E_pair E_mol TotEng Press Volume Density
0          300   -704.48776 0.0063226804   -533.68102    30956.149    1933.2985   0.99030996
Averages over the last 26 of 51 rows, steps 2500 to 5000:
Temp E_pair E_mol TotEng Press Volume Density
321.461 -728.352 84.6747 -460.658 -530.228 1933.3 0.99031
Loop time of 4.74303 on 1 procs for 5000 steps with 192 atoms
