LAMMPS (29 Oct 2020)
units		    metal
atom_style	    full

read_data	    water_eq.data
Reading data file ...
  orthogonal box = (0.0000000 0.0000000 0.0000000) to (12.464486 12.464486 12.443718)
  reading atoms ...
  192 atoms
  reading velocities ...
  192 velocities
  scanning bonds ...
  scanning angles ...
  reading bonds ...
  128 bonds
  reading angles ...
  64 angles
Finding 1-2 1-3 1-4 neighbors ...
     2 = max # of 1-2 neighbors
     1 = max # of 1-3 neighbors
     1 = max # of 1-4 neighbors
     2 = max # of special neighbors

pair_style      deepmd graph.pb
pair_coeff      * *

neighbor        2.0 bin
neigh_modify	every 1 delay 10 check yes
fix		        2 all nvt temp 300.0 300.0 0.1 tchain 1
velocity	    all create 300 432567 dist uniform
dump            1 all atom 100 water_deepmd.lammpstrj
dump_modify     1 sort id
thermo_style    custom step temp epair emol etotal press vol density
thermo          100
run             5000
  update every 1 steps, delay 10 steps, check yes
Step Temp E_pair E_mol TotEng Press Volume Density
0          300   -29654.547            0   -29647.141   -142767.54    1933.2985   0.99030996
Averages over the last 12 of 24 rows, steps 1200 to 2300:
Temp E_pair E_mol TotEng Press Volume Density
845.349 -30085.5 0 -30064.6 -5588.59 1933.3 0.99031
    2400         -nan   -29418.337            0         -nan         -nan    1933.2985   0.99030996
    2500         -nan   -29418.337            0         -nan         -nan    1933.2985   0.99030996
    2600         -nan   -29418.337            0         -nan         -nan    1933.2985   0.99030996
    2700         -nan   -29418.337            0         -nan         -nan    1933.2985   0.99030996
    2800         -nan   -29418.337            0         -nan         -nan    1933.2985   0.99030996
    2900         -nan   -29418.337            0         -nan         -nan    1933.2985   0.99030996
    3000         -nan   -29418.337            0         -nan         -nan    1933.2985   0.99030996
    3100         -nan   -29418.337            0         -nan         -nan    1933.2985   0.99030996
    3200         -nan   -29418.337            0         -nan         -nan    1933.2985   0.99030996
    3300         -nan   -29418.337            0         -nan         -nan    1933.2985   0.99030996
    3400         -nan   -29418.337            0         -nan         -nan    1933.2985   0.99030996
    3500         -nan   -29418.337            0         -nan         -nan    1933.2985   0.99030996
    3600         -nan   -29418.337            0         -nan         -nan    1933.2985   0.99030996
    3700         -nan   -29418.337            0         -nan         -nan    1933.2985   0.99030996
    3800         -nan   -29418.337            0         -nan         -nan    1933.2985   0.99030996
    3900         -nan   -29418.337            0         -nan         -nan    1933.2985   0.99030996
    4000         -nan   -29418.337            0         -nan         -nan    1933.2985   0.99030996
    4100         -nan   -29418.337            0         -nan         -nan    1933.2985   0.99030996
    4200         -nan   -29418.337            0         -nan         -nan    1933.2985   0.99030996
    4300         -nan   -29418.337            0         -nan         -nan    1933.2985   0.99030996
    4400         -nan   -29418.337            0         -nan         -nan    1933.2985   0.99030996
    4500         -nan   -29418.337            0         -nan         -nan    1933.2985   0.99030996
    4600         -nan   -29418.337            0         -nan         -nan    1933.2985   0.99030996
    4700         -nan   -29418.337            0         -nan         -nan    1933.2985   0.99030996
    4800         -nan   -29418.337            0         -nan         -nan    1933.2985   0.99030996
    4900         -nan   -29418.337            0         -nan         -nan    1933.2985   0.99030996
    5000         -nan   -29418.337            0         -nan         -nan    1933.2985   0.99030996
Loop time of 811.598 on 1 procs for 5000 steps with 192 atoms

Please see the log.cite file for references relevant to this simulation
