LAMMPS (27 Oct 2021)
units		    real
atom_style	    full

read_data	    data.spce
Reading data file ...
  orthogonal box = (0.026450000 0.026450000 0.026410000) to (35.532800 35.532800 35.473600)
  reading atoms ...
  4500 atoms
  scanning bonds ...
  scanning angles ...
  reading bonds ...
  3000 bonds
  reading angles ...
  1500 angles
Finding 1-2 1-3 1-4 neighbors ...
     2 = max # of 1-2 neighbors
     1 = max # of 1-3 neighbors
     1 = max # of 1-4 neighbors
     2 = max # of special neighbors
group           delgrp molecule > 64
4308 atoms in group delgrp
delete_atoms    group delgrp
Deleted 4308 atoms, new total = 192

pair_style	    lj/cut/coul/long 9.8 9.8
kspace_style	pppm 1.0e-4

pair_coeff  	1 1 0.15535 3.166
pair_coeff  	* 2 0.0000 0.0000

bond_style	    harmonic
angle_style	    harmonic
dihedral_style	none
improper_style	none

bond_coeff	    1 1000.00 1.000
angle_coeff	    1 100.0 109.47

special_bonds   lj/coul 0.0 0.0 0.5
Finding 1-2 1-3 1-4 neighbors ...
     2 = max # of 1-2 neighbors
     1 = max # of 1-3 neighbors
     1 = max # of 1-4 neighbors
     2 = max # of special neighbors

neighbor        2.0 bin
neigh_modify	every 1 delay 10 check yes
variable        lx equal lx
variable        ly equal ly
variable        lz equal lz
change_box      all x final 0.0 35.50635 y final 0.0 35.50635 z final 0.0 35.44719 remap units box
Changing box ...
  orthogonal box = (0.0000000 0.026450000 0.026410000) to (35.506350 35.532800 35.473600)
  orthogonal box = (0.0000000 0.0000000 0.026410000) to (35.506350 35.506350 35.473600)
  orthogonal box = (0.0000000 0.0000000 0.0000000) to (35.506350 35.506350 35.447190)
fix		        1 all shake 0.0001 20 0 b 1 a 1
       0 = # of size 2 clusters
       0 = # of size 3 clusters
       0 = # of size 4 clusters
      64 = # of frozen angles
  find clusters CPU = 0.000 seconds
fix		        2 all npt temp 300.0 300.0 100.0 iso 5.0 5.0 200 tchain 1 pchain 1 fixedpoint 0 0 0

velocity	    all create 300 432567 dist uniform
thermo		    1000

run             2000
PPPM initialization ...
  G vector (1/distance) = 0.24940433
  grid = 15 15 15
  stencil order = 5
  estimated absolute RMS force accuracy = 0.017955488
  estimated relative force accuracy = 5.4072419e-05
  3d grid and FFT values/proc = 5200 1800
  update every 1 steps, delay 10 steps, check yes
Step Temp E_pair E_mol TotEng Press Volume
0          300   -51.889686            0    61.679177    -37.56193    44688.304
Loop time of 0.855102 on 2 procs for 2000 steps with 192 atoms

run             2000
PPPM initialization ...
  G vector (1/distance) = 0.23372216
  grid = 15 15 15
  stencil order = 5
  estimated absolute RMS force accuracy = 0.028880932
  estimated relative force accuracy = 8.6974069e-05
  3d grid and FFT values/proc = 5200 1800
Step Temp E_pair E_mol TotEng Press Volume
2000     351.9919   -173.00079            0   -39.749725   -20.340758    74000.464
Loop time of 0.894779 on 2 procs for 2000 steps with 192 atoms

run             5000
PPPM initialization ...
  G vector (1/distance) = 0.2319165
  grid = 15 15 15
  stencil order = 5
  estimated absolute RMS force accuracy = 0.030430563
  estimated relative force accuracy = 9.1640738e-05
  3d grid and FFT values/proc = 5200 1800
Step Temp E_pair E_mol TotEng Press Volume
4000    277.81902   -214.46244            0   -109.29047   -72.593515    78353.261
Loop time of 2.52782 on 2 procs for 5000 steps with 192 atoms

run             5000
PPPM initialization ...
  G vector (1/distance) = 0.25696945
  grid = 12 12 12
  stencil order = 5
  estimated absolute RMS force accuracy = 0.019681885
  estimated relative force accuracy = 5.9271414e-05
  3d grid and FFT values/proc = 3179 864
Step Temp E_pair E_mol TotEng Press Volume
9000    276.38009   -453.47869            0   -348.85145   -140.49441    17819.646
Loop time of 2.20055 on 2 procs for 5000 steps with 192 atoms

unfix           2

fix		        2 all npt temp 300.0 300.0 100.0 iso 1.0 1.0 200 tchain 1 pchain 1 fixedpoint 0 0 0
run             20000
PPPM initialization ...
  G vector (1/distance) = 0.27272662
  grid = 8 8 8
  stencil order = 5
  estimated absolute RMS force accuracy = 0.021224471
  estimated relative force accuracy = 6.3916864e-05
  3d grid and FFT values/proc = 2475 256
Step Temp E_pair E_mol TotEng Press Volume
14000    262.83049    -631.6712            0   -532.17334    -1434.452    3083.8935
Averages over the last 11 of 21 rows, steps 24000 to 34000:
Temp E_pair E_mol TotEng Press Volume
291.903 -713.266 0 -602.763 -730.679 1938.87
Loop time of 14.0286 on 2 procs for 20000 steps with 192 atoms

unfix           2

write_data      water_eq.data
System init for write_data ...
PPPM initialization ...
  G vector (1/distance) = 0.28581223
  grid = 8 8 8
  stencil order = 5
  estimated absolute RMS force accuracy = 0.013285973
  estimated relative force accuracy = 4.0010312e-05
  3d grid and FFT values/proc = 2475 256
reset_timestep  0
dump            1 all atom 1000 water.lammpstrj
dump_modify     1 sort id
fix		        2 all npt temp 300.0 300.0 100.0 iso 1.0 1.0 200 tchain 1 pchain 1 fixedpoint 0 0 0
run             20000
PPPM initialization ...
  G vector (1/distance) = 0.28581223
  grid = 8 8 8
  stencil order = 5
  estimated absolute RMS force accuracy = 0.013285973
  estimated relative force accuracy = 4.0010312e-05
  3d grid and FFT values/proc = 2475 256
Step Temp E_pair E_mol TotEng Press Volume
0    297.15661   -704.48776            0   -591.99529   -1386.1427    1933.2985
Averages over the last 11 of 21 rows, steps 10000 to 20000:
Temp E_pair E_mol TotEng Press Volume
298.749 -709.535 0 -596.44 335.961 1915.32
Loop time of 14.4412 on 2 procs for 20000 steps with 192 atoms
